24

C 2.261000000000 4.189000000000 2.992666000000
C 3.614000000000 4.208000000000 3.351666000000
C 4.353000000000 3.019000000000 3.358666000000
C 3.739000000000 1.811000000000 3.006666000000
C 2.386000000000 1.792000000000 2.648666000000
C 1.647000000000 2.981000000000 2.641666000000
H 1.691000000000 5.106000000000 2.987666000000
H 4.088000000000 5.140000000000 3.622666000000
H 5.397000000000 3.034000000000 3.634666000000
H 4.309000000000 0.894000000000 3.012666000000
H 1.912000000000 0.860000000000 2.377666000000
H 0.603000000000 2.966000000000 2.364666000000
C 0.998523717952 3.407062011747 6.052183277808
C 0.953582597884 2.025568256235 5.830133060047
C 2.109089984959 1.252394364086 5.994132483569
C 3.309538492102 1.860714227451 6.380182124851
C 3.354557483740 3.242104972317 6.601240715250
C 2.199050096665 4.015278864465 6.437241291728
H 0.107387729510 4.003376765033 5.925300004219
H 0.027352524124 1.556011623105 5.532886666043
H 2.073995899642 0.186522977671 5.823769363154
H 4.200752352114 1.264296463519 6.506073771078
H 4.280787557499 3.711661605446 6.898487109254
H 2.234066310412 5.081253261526 6.608596039505
