24

C 2.261000000000 4.189000000000 2.992666000000
C 3.614000000000 4.208000000000 3.351666000000
C 4.353000000000 3.019000000000 3.358666000000
C 3.739000000000 1.811000000000 3.006666000000
C 2.386000000000 1.792000000000 2.648666000000
C 1.647000000000 2.981000000000 2.641666000000
H 1.691000000000 5.106000000000 2.987666000000
H 4.088000000000 5.140000000000 3.622666000000
H 5.397000000000 3.034000000000 3.634666000000
H 4.309000000000 0.894000000000 3.012666000000
H 1.912000000000 0.860000000000 2.377666000000
H 0.603000000000 2.966000000000 2.364666000000
C 0.998523103741 3.407061717902 6.052182981272
C 0.953581928572 2.025567948760 5.830132859461
C 2.109089264200 1.252394009018 5.994132421089
C 3.309537774998 1.860713838419 6.380182104527
C 3.354556821802 3.242104596840 6.601240598988
C 2.199049486174 4.015278536581 6.437241037361
H 0.107387155006 4.003376507863 5.925299601172
H 0.027351851939 1.556011341880 5.532886432945
H 2.073995136303 0.186522612178 5.823769374673
H 4.200751595368 1.264296037737 6.506073857278
H 4.280786898435 3.711661203719 6.898487025504
H 2.234065742436 5.081252944143 6.608595711126
